THERMO ALL
       100       500      1500
N2              20221018N 2                 G300.0     1500.0    765.3         1
 3.63868505E+00-1.28871886E-03 2.77014337E-06-1.63532115E-09 3.27799454E-13    2
-1.24972872E+02 3.35620874E+00 3.42514806E+00 8.52208441E-04-3.44316178E-06    3
 5.59481710E-09-2.66406303E-12-1.23136699E+02 4.13154787E+00                   4
NH3             20221018N 1  H 3            G300.0     1500.0    642.9         1
 3.39392790E+00 2.34838674E-03 5.73695381E-07-7.08821264E-10 1.45156199E-13    2
-8.44328182E+03 3.06481235E+00 4.46946937E+00-5.96585658E-03 2.39119043E-05    3
-2.92744972E-08 1.31024599E-11-8.54831804E+03-1.39067314E+00                   4
H2              20221018H 2                 G300.0     1500.0    789.8         1
 3.86579688E+00-1.26673399E-03 1.37839288E-06-4.40789885E-10 3.92146359E-14    2
 1.62339185E+03-5.38182751E+00 3.48773366E+00 9.03317121E-05-1.98942330E-07    3
 7.04730338E-11 1.37114435E-13 1.70200946E+03-3.53280901E+00                   4
N2(T)           20221018N 2                 S300.0     1500.0    495.9         1
 3.88462912E+00 2.25940359E-03-6.79303987E-07-1.53774171E-10 8.79982807E-14    2
-6.99432266E+03-1.57357498E+01 5.29983477E-01 2.88114502E-02-8.09048598E-05    3
 1.09375052E-07-5.68212461E-11-6.64898248E+03-1.81027118E+00                   4
N(T)            20221018N 1                 S300.0     1500.0    667.3         1
 2.73928743E+00 8.18441120E-03-8.58988414E-06 4.22304872E-09-8.00425637E-13    2
-1.15319804E+04-1.57277355E+01-4.19160439E+00 5.08692439E-02-1.10187182E-04    3
 1.14454172E-07-4.65454249E-11-1.06013065E+04 1.48315479E+01                   4
H(T)            20221018H 1                 S300.0     1500.0    863.3         1
 3.31526466E-01 5.77464760E-03-5.32967052E-06 2.33941021E-09-4.00823022E-13    2
-6.49582469E+03-3.07343641E+00-2.13022007E+00 1.72922487E-02-2.59102697E-05    3
 1.89595528E-08-5.50804302E-12-6.06678271E+03 8.44063079E+00                   4
NH3(T)          20221018N 1  H 3            S300.0     1500.0    814.3         1
 3.56328322E+00 6.87647446E-03-2.08531448E-06 1.39479320E-10 2.83204321E-14    2
-1.45893614E+04-1.56788313E+01 1.72130321E+00 1.48963410E-02-1.50909582E-05    3
 9.40780152E-09-2.40409384E-12-1.42521636E+04-6.95270344E+00                   4
NH2(T)          20221018N 1  H 2            S300.0     1500.0    716.3         1
 2.88669846E+00 6.77407993E-03-4.25127007E-06 1.67151232E-09-3.02040888E-13    2
-1.25125507E+04-1.54794362E+01-2.13456509E+00 3.43569695E-02-6.27807464E-05    3
 5.84397649E-08-2.14666704E-11-1.17596496E+04 7.22692482E+00                   4
NH(T)           20221018N 1  H 1            S300.0     1500.0    691.8         1
 2.17124461E+00 5.90164470E-03-5.10791389E-06 2.40825412E-09-4.62705406E-13    2
-1.54403143E+04-1.25768018E+01-3.46600080E+00 3.79368931E-02-7.53387929E-05    3
 7.26653343E-08-2.74313838E-11-1.46238260E+04 1.27211743E+01                   4
RU(T)           20221018Ru1                 S300.0     1500.0    912.2         1
 0.00000000E+00 0.00000000E+00 0.00000000E+00 0.00000000E+00 0.00000000E+00    2
 0.00000000E+00 0.00000000E+00 0.00000000E+00 0.00000000E+00 0.00000000E+00    3
 0.00000000E+00 0.00000000E+00 0.00000000E+00 0.00000000E+00                   4
N2(S)           20221018N 2                 S300.0     1500.0    667.3         1
 2.65961316E+00 8.06097506E-03-8.24245504E-06 3.97876197E-09-7.44091522E-13    2
-9.39245809E+03-1.46686079E+01-1.79478185E+00 3.48775437E-02-7.08904685E-05    3
 7.09944468E-08-2.82795874E-11-8.77884067E+03 5.08017675E+00                   4
N(S)            20221018N 1                 S300.0     1500.0    667.3         1
 1.29763262E+00 4.27045185E-03-4.48024209E-06 2.20199879E-09-4.17272923E-13    2
-1.27880455E+04-7.56571591E+00-2.24366871E+00 2.60061666E-02-5.60428798E-05    3
 5.79722942E-08-2.34965202E-11-1.23109694E+04 8.06028086E+00                   4
H(S)            20221018H 1                 S300.0     1500.0    863.3         1
 3.31526466E-01 5.77464760E-03-5.32967052E-06 2.33941021E-09-4.00823022E-13    2
-6.49582469E+03-3.07343641E+00-2.13022007E+00 1.72922487E-02-2.59102697E-05    3
 1.89595528E-08-5.50804302E-12-6.06678271E+03 8.44063079E+00                   4
NH3(S)          20221018N 1  H 3            S300.0     1500.0    838.8         1
 3.59911449E+00 6.72248614E-03-1.87137847E-06 1.64213637E-11 5.39434716E-14    2
-1.74993939E+04-1.59255537E+01 1.77489646E+00 1.46718386E-02-1.48315093E-05    3
 9.36186198E-09-2.45234842E-12-1.71646499E+04-7.28189000E+00                   4
NH2(S)          20221018N 1  H 2            S300.0     1500.0    716.3         1
 2.98628442E+00 6.62602214E-03-4.19542601E-06 1.67852490E-09-3.07707422E-13    2
-1.90395176E+04-1.55780071E+01-1.86203940E+00 3.30458002E-02-5.98066707E-05    3
 5.52041701E-08-2.01251732E-11-1.83070088E+04 6.38449838E+00                   4
NH(S)           20221018N 1  H 1            S300.0     1500.0    691.8         1
 2.33049956E+00 5.51593284E-03-4.70017609E-06 2.20609446E-09-4.24252915E-13    2
-1.43663716E+04-1.32814462E+01-3.31763257E+00 3.78802755E-02-7.62694345E-05    3
 7.44228756E-08-2.83754578E-11-1.35544738E+04 1.20203037E+01                   4
RU(S)           20221018Ru1                 S300.0     1500.0    912.2         1
 0.00000000E+00 0.00000000E+00 0.00000000E+00 0.00000000E+00 0.00000000E+00    2
 0.00000000E+00 0.00000000E+00 0.00000000E+00 0.00000000E+00 0.00000000E+00    3
 0.00000000E+00 0.00000000E+00 0.00000000E+00 0.00000000E+00                   4
RU(B)           20221018Ru1                 S300.0     1500.0    912.2         1
 0.00000000E+00 0.00000000E+00 0.00000000E+00 0.00000000E+00 0.00000000E+00    2
 0.00000000E+00 0.00000000E+00 0.00000000E+00 0.00000000E+00 0.00000000E+00    3
 0.00000000E+00 0.00000000E+00 0.00000000E+00 0.00000000E+00                   4
END